* NGSPICE file created from pong_pt1.ext - technology: scmos

* Black-box entry subcircuit for FILL abstract view
.subckt FILL vdd gnd
.ends

* Black-box entry subcircuit for OAI22X1 abstract view
.subckt OAI22X1 A B C D Y vdd gnd
.ends

* Black-box entry subcircuit for NOR2X1 abstract view
.subckt NOR2X1 A B Y vdd gnd
.ends

* Black-box entry subcircuit for NAND2X1 abstract view
.subckt NAND2X1 A B Y vdd gnd
.ends

* Black-box entry subcircuit for AOI22X1 abstract view
.subckt AOI22X1 A B C D Y vdd gnd
.ends

* Black-box entry subcircuit for NAND3X1 abstract view
.subckt NAND3X1 A B C Y vdd gnd
.ends

* Black-box entry subcircuit for INVX2 abstract view
.subckt INVX2 A Y vdd gnd
.ends

* Black-box entry subcircuit for OAI21X1 abstract view
.subckt OAI21X1 A B C Y vdd gnd
.ends

* Black-box entry subcircuit for BUFX2 abstract view
.subckt BUFX2 A Y vdd gnd
.ends

* Black-box entry subcircuit for XOR2X1 abstract view
.subckt XOR2X1 A B Y vdd gnd
.ends

* Black-box entry subcircuit for DFFSR abstract view
.subckt DFFSR D S R CLK Q vdd gnd
.ends

* Black-box entry subcircuit for AOI21X1 abstract view
.subckt AOI21X1 A B C Y vdd gnd
.ends

* Black-box entry subcircuit for INVX1 abstract view
.subckt INVX1 A Y vdd gnd
.ends

* Black-box entry subcircuit for AND2X2 abstract view
.subckt AND2X2 A B Y vdd gnd
.ends

* Black-box entry subcircuit for NOR3X1 abstract view
.subckt NOR3X1 A B C Y vdd gnd
.ends

* Black-box entry subcircuit for OR2X2 abstract view
.subckt OR2X2 A B Y vdd gnd
.ends

* Black-box entry subcircuit for XNOR2X1 abstract view
.subckt XNOR2X1 A B Y vdd gnd
.ends

* Black-box entry subcircuit for INVX8 abstract view
.subckt INVX8 A Y vdd gnd
.ends

* Black-box entry subcircuit for CLKBUF1 abstract view
.subckt CLKBUF1 A Y vdd gnd
.ends

* Black-box entry subcircuit for MUX2X1 abstract view
.subckt MUX2X1 A B S Y vdd gnd
.ends

.subckt pong_pt1 gnd vdd clk down hsync p_tick reset rgb[11] rgb[10] rgb[9] rgb[8]
+ rgb[7] rgb[6] rgb[5] rgb[4] rgb[3] rgb[2] rgb[1] rgb[0] up vsync
XFILL_3__1606_ vdd gnd FILL
XFILL_1__1670_ vdd gnd FILL
XFILL_3__1468_ vdd gnd FILL
XFILL_3__1537_ vdd gnd FILL
XFILL_2__992_ vdd gnd FILL
XFILL_1__1104_ vdd gnd FILL
XFILL_3__1399_ vdd gnd FILL
XFILL_1__1035_ vdd gnd FILL
XFILL_4__1715_ vdd gnd FILL
XFILL_4__1577_ vdd gnd FILL
XFILL_4__1646_ vdd gnd FILL
XFILL_2__1213_ vdd gnd FILL
XFILL_2__1144_ vdd gnd FILL
XFILL_2__1075_ vdd gnd FILL
XFILL_0_CLKBUF1_insert6 vdd gnd FILL
XFILL_3__1322_ vdd gnd FILL
X_1270_ _1270_/A _1270_/B _1270_/C _1270_/D _1304_/C vdd gnd OAI22X1
XFILL_0__1613_ vdd gnd FILL
XFILL_3__888_ vdd gnd FILL
XFILL_3__957_ vdd gnd FILL
XFILL_0__1544_ vdd gnd FILL
XFILL_3__1184_ vdd gnd FILL
XFILL_4_BUFX2_insert3 vdd gnd FILL
XFILL_3__1253_ vdd gnd FILL
XFILL_0__1475_ vdd gnd FILL
X_1606_ _979_/C _979_/B _1672_/A vdd gnd NOR2X1
XFILL_1__1722_ vdd gnd FILL
XFILL_1__1653_ vdd gnd FILL
XFILL_4__1500_ vdd gnd FILL
X_1468_ _1485_/B _1487_/A _1500_/B vdd gnd NAND2X1
X_1537_ _1537_/A _1595_/B _1537_/C _1544_/D _1685_/D vdd gnd OAI22X1
X_1399_ _1545_/A _1410_/B _1399_/C _1417_/C _1408_/B vdd gnd AOI22X1
XFILL_4__1431_ vdd gnd FILL
XFILL_4__1362_ vdd gnd FILL
XFILL_1__1584_ vdd gnd FILL
XFILL_4__1293_ vdd gnd FILL
XFILL_2__975_ vdd gnd FILL
XFILL_1__1018_ vdd gnd FILL
X_981_ _981_/A _981_/B _981_/Y vdd gnd NOR2X1
XFILL_4__1629_ vdd gnd FILL
XFILL_0__1260_ vdd gnd FILL
XFILL_0__1191_ vdd gnd FILL
XFILL_2__1058_ vdd gnd FILL
XFILL_2__1127_ vdd gnd FILL
X_1322_ _1355_/C _1356_/B _1414_/B vdd gnd NAND2X1
XFILL_1__993_ vdd gnd FILL
X_1253_ _1253_/A _1253_/B _1253_/C _1267_/B vdd gnd NAND3X1
X_1184_ _1216_/B _1184_/B _1353_/B _1213_/B _1185_/A vdd gnd AOI22X1
XFILL_0__1527_ vdd gnd FILL
XFILL_3__1236_ vdd gnd FILL
XFILL_3__1305_ vdd gnd FILL
XFILL_3__1167_ vdd gnd FILL
XFILL_0__1389_ vdd gnd FILL
XFILL_0__1458_ vdd gnd FILL
XFILL_3__1098_ vdd gnd FILL
XFILL_4__1414_ vdd gnd FILL
XFILL_4__1345_ vdd gnd FILL
XFILL_1__1636_ vdd gnd FILL
XFILL_1__1567_ vdd gnd FILL
XFILL_1__1498_ vdd gnd FILL
XFILL_4__1276_ vdd gnd FILL
XFILL_2__889_ vdd gnd FILL
XFILL_2__958_ vdd gnd FILL
X_895_ _938_/Q _895_/B _947_/D vdd gnd NOR2X1
X_964_ _964_/A _965_/C vdd gnd INVX2
XFILL_2__1676_ vdd gnd FILL
XFILL_0__1174_ vdd gnd FILL
XFILL_0__1243_ vdd gnd FILL
XFILL_3__1021_ vdd gnd FILL
XFILL_0__1312_ vdd gnd FILL
X_1236_ _1698_/Q _1513_/A _1236_/C _1237_/A vdd gnd OAI21X1
X_1305_ _1305_/A _1305_/B _1305_/C _1307_/A vdd gnd NAND3X1
XFILL_1__976_ vdd gnd FILL
XFILL_1__1352_ vdd gnd FILL
XFILL_3__1219_ vdd gnd FILL
XBUFX2_insert0 _859_/Y _956_/R vdd gnd BUFX2
X_1167_ _1691_/Q _1690_/Q _1692_/Q _1332_/A vdd gnd OAI21X1
XFILL_1__1421_ vdd gnd FILL
XFILL_4__1061_ vdd gnd FILL
XFILL_1__1283_ vdd gnd FILL
XFILL_4__1130_ vdd gnd FILL
X_1098_ _1427_/B _961_/B _1099_/C vdd gnd XOR2X1
XFILL_4__1328_ vdd gnd FILL
XFILL_2__1530_ vdd gnd FILL
XFILL_2__1461_ vdd gnd FILL
XFILL_2__1392_ vdd gnd FILL
XFILL_1__1619_ vdd gnd FILL
XFILL_0__994_ vdd gnd FILL
XFILL_4__1259_ vdd gnd FILL
XFILL_1__830_ vdd gnd FILL
X_947_ _947_/D vdd _947_/R _949_/CLK _964_/A vdd gnd DFFSR
X_878_ _878_/A _878_/B _937_/B _942_/D vdd gnd AOI21X1
XFILL_3__1570_ vdd gnd FILL
XFILL_2__1659_ vdd gnd FILL
XFILL_4__972_ vdd gnd FILL
X_1021_ _1422_/A _953_/Q _968_/A _1616_/B _1022_/A vdd gnd AOI22X1
XFILL_0__1226_ vdd gnd FILL
XFILL_0__1157_ vdd gnd FILL
XFILL_3__1004_ vdd gnd FILL
XFILL_0__1088_ vdd gnd FILL
X_1219_ _1696_/Q _974_/A _1227_/A vdd gnd NAND2X1
XFILL_1__1404_ vdd gnd FILL
XFILL_1__959_ vdd gnd FILL
XFILL_4__1044_ vdd gnd FILL
XFILL_1__1335_ vdd gnd FILL
XFILL_1__1266_ vdd gnd FILL
XFILL_4__1113_ vdd gnd FILL
XFILL_1__1197_ vdd gnd FILL
XFILL_3__990_ vdd gnd FILL
XFILL_2__1513_ vdd gnd FILL
XFILL_2__1375_ vdd gnd FILL
XFILL_2__1444_ vdd gnd FILL
XFILL_0__1011_ vdd gnd FILL
XFILL_0__977_ vdd gnd FILL
X_1570_ _1570_/A _1577_/C _1572_/B vdd gnd NAND2X1
XFILL_3__1622_ vdd gnd FILL
XFILL_3__1484_ vdd gnd FILL
XFILL_3__1553_ vdd gnd FILL
X_1004_ _951_/Q _1383_/B _997_/Y _1011_/A vdd gnd OAI21X1
XFILL_4__886_ vdd gnd FILL
XFILL_1__1120_ vdd gnd FILL
XFILL_0__1209_ vdd gnd FILL
XFILL_1__1051_ vdd gnd FILL
XFILL_4__1593_ vdd gnd FILL
XFILL_4__1662_ vdd gnd FILL
X_1699_ _1699_/D vdd _1702_/R _1702_/CLK _999_/A vdd gnd DFFSR
XFILL_2__1160_ vdd gnd FILL
XFILL_1__1318_ vdd gnd FILL
XFILL_0__831_ vdd gnd FILL
XFILL_0__900_ vdd gnd FILL
XFILL_1__1249_ vdd gnd FILL
XFILL_4__1027_ vdd gnd FILL
XFILL_2__1091_ vdd gnd FILL
XFILL_3__973_ vdd gnd FILL
XFILL_0__1560_ vdd gnd FILL
XFILL_2__1358_ vdd gnd FILL
XFILL_0__1491_ vdd gnd FILL
XFILL_2__1427_ vdd gnd FILL
XFILL_2__1289_ vdd gnd FILL
X_1622_ up _1657_/A vdd gnd INVX1
XFILL_3__1605_ vdd gnd FILL
X_1484_ _1488_/A _1488_/B _1484_/C _1485_/A vdd gnd OAI21X1
XFILL_2_BUFX2_insert14 vdd gnd FILL
X_1553_ _1553_/A _1619_/A _1553_/C _1691_/D vdd gnd OAI21X1
XFILL_3__1398_ vdd gnd FILL
XFILL_3__1467_ vdd gnd FILL
XFILL_3__1536_ vdd gnd FILL
XFILL_1__1034_ vdd gnd FILL
XFILL_4__869_ vdd gnd FILL
XFILL_2__991_ vdd gnd FILL
XFILL_1__1103_ vdd gnd FILL
XFILL_4__1714_ vdd gnd FILL
XFILL_1_BUFX2_insert0 vdd gnd FILL
XFILL_4__1576_ vdd gnd FILL
XFILL_4__1645_ vdd gnd FILL
XFILL_2__1212_ vdd gnd FILL
XFILL_2__1143_ vdd gnd FILL
XFILL_2__1074_ vdd gnd FILL
XFILL_0_CLKBUF1_insert7 vdd gnd FILL
XFILL103350x70350 vdd gnd FILL
XFILL_3__1321_ vdd gnd FILL
XFILL_3__1252_ vdd gnd FILL
XFILL_0__1612_ vdd gnd FILL
XFILL_3__887_ vdd gnd FILL
XFILL_0__1543_ vdd gnd FILL
XFILL_3__1183_ vdd gnd FILL
XFILL_0__1474_ vdd gnd FILL
X_1605_ _1605_/A _1605_/B _1698_/D vdd gnd XOR2X1
X_1536_ _1602_/C _1536_/B _1536_/C _1537_/C vdd gnd NAND3X1
XFILL_4__1361_ vdd gnd FILL
XFILL_1__1652_ vdd gnd FILL
XFILL_4__1430_ vdd gnd FILL
X_1398_ _1398_/A _1398_/B _1398_/C _1417_/C vdd gnd AOI21X1
XFILL_1__1583_ vdd gnd FILL
X_1467_ _1488_/A _1487_/A vdd gnd INVX1
XFILL_1__1721_ vdd gnd FILL
XFILL_4__1292_ vdd gnd FILL
XFILL_3__1519_ vdd gnd FILL
XFILL_1__1017_ vdd gnd FILL
XFILL_2__974_ vdd gnd FILL
X_980_ _980_/A _980_/B _981_/B vdd gnd NOR2X1
XFILL_4__1628_ vdd gnd FILL
XFILL_4__1559_ vdd gnd FILL
XFILL_0__1190_ vdd gnd FILL
XFILL_2__1126_ vdd gnd FILL
XFILL_2__1057_ vdd gnd FILL
X_1321_ _979_/C _1400_/C _1356_/B vdd gnd NAND2X1
XFILL_1__992_ vdd gnd FILL
X_1252_ _1252_/A _1252_/B _1252_/C _1253_/C vdd gnd AOI21X1
X_1183_ _1327_/C _1327_/B _1353_/B vdd gnd AND2X2
XFILL_0__1526_ vdd gnd FILL
XFILL_3__1235_ vdd gnd FILL
XFILL_3__1304_ vdd gnd FILL
XFILL_0__1457_ vdd gnd FILL
XFILL_3__1166_ vdd gnd FILL
XFILL_0__1388_ vdd gnd FILL
XFILL_3__1097_ vdd gnd FILL
X_1519_ _1524_/A _1519_/B _1524_/B _1520_/C vdd gnd NAND3X1
XFILL_4__1413_ vdd gnd FILL
XFILL_4__1344_ vdd gnd FILL
XFILL_1__1566_ vdd gnd FILL
XFILL_1__1635_ vdd gnd FILL
XFILL_2__957_ vdd gnd FILL
XFILL_1__1497_ vdd gnd FILL
XFILL_4__1275_ vdd gnd FILL
XFILL_2__888_ vdd gnd FILL
X_894_ _894_/A _894_/B _937_/B _946_/D vdd gnd AOI21X1
X_963_ _963_/A _963_/B _966_/A vdd gnd NAND2X1
XFILL_2__1675_ vdd gnd FILL
XFILL_3__1020_ vdd gnd FILL
XFILL_0__1311_ vdd gnd FILL
XFILL_0__1173_ vdd gnd FILL
XFILL_0__1242_ vdd gnd FILL
XFILL_2__1109_ vdd gnd FILL
X_1166_ _1324_/A _1324_/B _952_/Q _1177_/B vdd gnd OAI21X1
XBUFX2_insert1 _859_/Y _954_/S vdd gnd BUFX2
X_1235_ _1235_/A _1254_/C _1235_/C _1236_/C vdd gnd NAND3X1
XFILL_1__975_ vdd gnd FILL
XFILL_1__1420_ vdd gnd FILL
X_1304_ _1304_/A _1304_/B _1304_/C _1305_/C vdd gnd NOR3X1
XFILL_3__1218_ vdd gnd FILL
XFILL_1__1351_ vdd gnd FILL
XFILL_3__1149_ vdd gnd FILL
XFILL_4__1060_ vdd gnd FILL
XFILL_0__1509_ vdd gnd FILL
XFILL_1__1282_ vdd gnd FILL
X_1097_ _1109_/A _1542_/A _1427_/B vdd gnd XOR2X1
XFILL_4__1327_ vdd gnd FILL
XFILL_1__1618_ vdd gnd FILL
XFILL_4__1258_ vdd gnd FILL
XFILL_1__1549_ vdd gnd FILL
XFILL_2__1391_ vdd gnd FILL
XFILL_2__1460_ vdd gnd FILL
XFILL_4__1189_ vdd gnd FILL
XFILL_0__993_ vdd gnd FILL
X_1020_ _1020_/A _979_/A _1422_/A vdd gnd OR2X2
X_946_ _946_/D _948_/R vdd _949_/CLK _961_/A vdd gnd DFFSR
X_877_ _885_/A _885_/C _965_/A _878_/B vdd gnd OAI21X1
XFILL_2__1658_ vdd gnd FILL
XFILL_4__971_ vdd gnd FILL
XFILL_3__1003_ vdd gnd FILL
XFILL_2__1589_ vdd gnd FILL
XFILL_0__1225_ vdd gnd FILL
XFILL_0__1156_ vdd gnd FILL
XFILL_0__1087_ vdd gnd FILL
X_1218_ _1226_/A _1218_/B _1225_/A vdd gnd NAND2X1
X_1149_ _1696_/Q _1599_/A vdd gnd INVX2
XFILL_1__1403_ vdd gnd FILL
XFILL_1__889_ vdd gnd FILL
XFILL_1__958_ vdd gnd FILL
XFILL_4__1112_ vdd gnd FILL
XFILL_4__1043_ vdd gnd FILL
XFILL_1__1196_ vdd gnd FILL
XFILL_1__1334_ vdd gnd FILL
XFILL_1__1265_ vdd gnd FILL
XFILL_2__1512_ vdd gnd FILL
XFILL_2__1374_ vdd gnd FILL
XFILL_2__1443_ vdd gnd FILL
XFILL_0__1010_ vdd gnd FILL
XFILL_0__976_ vdd gnd FILL
XFILL_3__1552_ vdd gnd FILL
XFILL_3__1621_ vdd gnd FILL
X_929_ _934_/A _929_/B _929_/C _930_/B vdd gnd NAND3X1
X_1003_ _1374_/B _1374_/C _1383_/B vdd gnd NAND2X1
XFILL_3__1483_ vdd gnd FILL
XFILL_1__1050_ vdd gnd FILL
XFILL_0__1208_ vdd gnd FILL
X_1698_ _1698_/D vdd _1710_/R _945_/CLK _1698_/Q vdd gnd DFFSR
XFILL_4__1661_ vdd gnd FILL
XFILL_0__1139_ vdd gnd FILL
XFILL_4__1592_ vdd gnd FILL
XFILL_1__1317_ vdd gnd FILL
XFILL_0__830_ vdd gnd FILL
XFILL_1__1179_ vdd gnd FILL
XFILL_1__1248_ vdd gnd FILL
XFILL_4__1026_ vdd gnd FILL
XFILL_2__1090_ vdd gnd FILL
XFILL_3__972_ vdd gnd FILL
XFILL_0__1490_ vdd gnd FILL
XFILL_2__1426_ vdd gnd FILL
XFILL_2__1357_ vdd gnd FILL
XFILL_2__1288_ vdd gnd FILL
XFILL_0__959_ vdd gnd FILL
X_1552_ _1582_/A _1582_/B _1691_/Q _1553_/C vdd gnd OAI21X1
X_1621_ _1621_/A _1621_/B _1674_/B vdd gnd NOR2X1
XFILL_2_BUFX2_insert15 vdd gnd FILL
XFILL_3__1604_ vdd gnd FILL
XFILL_3__1535_ vdd gnd FILL
X_1483_ _1483_/A _1498_/A _1541_/A vdd gnd XNOR2X1
XFILL_2__990_ vdd gnd FILL
XFILL_3__1397_ vdd gnd FILL
XFILL_3__1466_ vdd gnd FILL
XFILL_4__937_ vdd gnd FILL
XFILL_1__1033_ vdd gnd FILL
XFILL_4__868_ vdd gnd FILL
XFILL_1__1102_ vdd gnd FILL
XFILL_4__1713_ vdd gnd FILL
XFILL_4__1644_ vdd gnd FILL
XFILL_1_BUFX2_insert1 vdd gnd FILL
XFILL_4__1575_ vdd gnd FILL
XFILL_2__1211_ vdd gnd FILL
XFILL_4__1009_ vdd gnd FILL
XFILL_2__1073_ vdd gnd FILL
XFILL_2__1142_ vdd gnd FILL
XFILL_0_CLKBUF1_insert8 vdd gnd FILL
XFILL_3__886_ vdd gnd FILL
XFILL103350x89850 vdd gnd FILL
XFILL_3__1182_ vdd gnd FILL
XFILL_3__1320_ vdd gnd FILL
XFILL_3__1251_ vdd gnd FILL
XFILL_2__1409_ vdd gnd FILL
XFILL_0__1473_ vdd gnd FILL
XFILL_0__1542_ vdd gnd FILL
XFILL_0__1611_ vdd gnd FILL
XFILL_1__1720_ vdd gnd FILL
X_1604_ _1604_/A _1604_/B _1604_/C _1605_/A vdd gnd OAI21X1
X_1535_ _1535_/A _1535_/B _1602_/C vdd gnd NOR2X1
XFILL_4__1360_ vdd gnd FILL
XFILL_1__1651_ vdd gnd FILL
X_1397_ _1397_/A _1397_/B _1397_/C _1398_/C vdd gnd NAND3X1
X_1466_ _1484_/C _1466_/B _1488_/A vdd gnd NAND2X1
XFILL_4__1291_ vdd gnd FILL
XFILL_3__1518_ vdd gnd FILL
XFILL_1__1582_ vdd gnd FILL
XFILL_2__973_ vdd gnd FILL
XFILL_3__1449_ vdd gnd FILL
XFILL_1__1016_ vdd gnd FILL
XFILL_4__1627_ vdd gnd FILL
XFILL_4__1489_ vdd gnd FILL
XFILL_2__1056_ vdd gnd FILL
XFILL103950x31350 vdd gnd FILL
XFILL_2__1125_ vdd gnd FILL
XFILL103050x19650 vdd gnd FILL
X_1320_ _978_/A _1348_/B _1348_/C _1355_/C vdd gnd NAND3X1
XFILL103650x66450 vdd gnd FILL
X_1182_ _1403_/B _1351_/B _1327_/C vdd gnd NAND2X1
XFILL_3__869_ vdd gnd FILL
X_1251_ _1266_/A _1266_/B _1265_/A _1270_/C vdd gnd AOI21X1
XFILL_1__991_ vdd gnd FILL
XFILL_3__1165_ vdd gnd FILL
XFILL_0__1525_ vdd gnd FILL
XFILL_3__1234_ vdd gnd FILL
XFILL_3__1303_ vdd gnd FILL
XFILL_0__1456_ vdd gnd FILL
XFILL_0__1387_ vdd gnd FILL
XFILL_3__1096_ vdd gnd FILL
XFILL_4__1412_ vdd gnd FILL
X_1518_ _1518_/A _1573_/B _1519_/B vdd gnd NOR2X1
X_1449_ _1595_/B _1619_/A vdd gnd INVX2
XFILL_4__1343_ vdd gnd FILL
XFILL_1__1565_ vdd gnd FILL
XFILL_1__1634_ vdd gnd FILL
XFILL_1__1496_ vdd gnd FILL
XFILL_4__1274_ vdd gnd FILL
XFILL_2__887_ vdd gnd FILL
X_893_ _893_/A _945_/D vdd gnd INVX1
X_962_ _962_/A _962_/B _963_/B vdd gnd NOR2X1
XFILL_2__1674_ vdd gnd FILL
XFILL_0__1241_ vdd gnd FILL
XFILL103950x43050 vdd gnd FILL
XFILL_0__1310_ vdd gnd FILL
XFILL_2__1039_ vdd gnd FILL
XFILL_0__1172_ vdd gnd FILL
XFILL_2__1108_ vdd gnd FILL
XFILL_1__974_ vdd gnd FILL
X_1303_ _1303_/A _1303_/B _1303_/C _1304_/B vdd gnd NAND3X1
XFILL_1__1350_ vdd gnd FILL
X_1165_ _1332_/B _1693_/Q _1694_/Q _1324_/A vdd gnd AOI21X1
XBUFX2_insert2 _859_/Y _947_/R vdd gnd BUFX2
X_1234_ _1252_/C _1252_/B _1254_/C vdd gnd AND2X2
X_1096_ _1096_/A _1107_/A _1109_/A vdd gnd NAND2X1
XFILL_3__1217_ vdd gnd FILL
XFILL_3__1148_ vdd gnd FILL
XFILL_0__1439_ vdd gnd FILL
XFILL_1__1281_ vdd gnd FILL
XFILL_0__1508_ vdd gnd FILL
XFILL_3__1079_ vdd gnd FILL
XFILL_4__1326_ vdd gnd FILL
XFILL_4__1188_ vdd gnd FILL
XFILL_1__1617_ vdd gnd FILL
XFILL_4__1257_ vdd gnd FILL
XFILL_1__1479_ vdd gnd FILL
XFILL_2__1390_ vdd gnd FILL
XFILL_1__1548_ vdd gnd FILL
XFILL_0__992_ vdd gnd FILL
X_945_ _945_/D vdd _947_/R _945_/CLK _961_/B vdd gnd DFFSR
X_876_ _885_/B _880_/B _878_/A vdd gnd NAND2X1
XFILL_2__1588_ vdd gnd FILL
XFILL_2__1657_ vdd gnd FILL
XFILL_0__1224_ vdd gnd FILL
XFILL_4__970_ vdd gnd FILL
XFILL_3__1002_ vdd gnd FILL
XFILL_0__1155_ vdd gnd FILL
XFILL_0__1086_ vdd gnd FILL
XFILL102450x70350 vdd gnd FILL
XFILL_1__957_ vdd gnd FILL
X_1217_ _1226_/B _1217_/B _1218_/B vdd gnd NOR2X1
XFILL_4__1042_ vdd gnd FILL
X_1148_ _1604_/A _1315_/B _1605_/B _1395_/B vdd gnd OAI21X1
XFILL_1__1333_ vdd gnd FILL
XFILL_1__1402_ vdd gnd FILL
X_1079_ _981_/Y _1079_/B _1079_/C _1080_/C vdd gnd OAI21X1
XFILL_1__888_ vdd gnd FILL
XFILL_4__1111_ vdd gnd FILL
XFILL_1__1195_ vdd gnd FILL
XFILL_1__1264_ vdd gnd FILL
XFILL_2__1442_ vdd gnd FILL
XFILL_2__1511_ vdd gnd FILL
XFILL_2__1373_ vdd gnd FILL
XFILL_4__1309_ vdd gnd FILL
XFILL_0__975_ vdd gnd FILL
X_928_ _928_/A _928_/B _933_/A _929_/C vdd gnd OAI21X1
XFILL_3__1551_ vdd gnd FILL
XFILL_3__1620_ vdd gnd FILL
X_859_ reset _859_/Y vdd gnd INVX8
X_1002_ _998_/A _992_/A _992_/B _1374_/B vdd gnd NAND3X1
XFILL_3__1482_ vdd gnd FILL
XFILL_0__1207_ vdd gnd FILL
XFILL_4__884_ vdd gnd FILL
X_1697_ _1697_/D vdd _1710_/R _945_/CLK _1697_/Q vdd gnd DFFSR
XFILL_4__1591_ vdd gnd FILL
XFILL_0__1069_ vdd gnd FILL
XFILL_4__1660_ vdd gnd FILL
XFILL_0__1138_ vdd gnd FILL
XFILL_1__1316_ vdd gnd FILL
XFILL_4__1025_ vdd gnd FILL
XFILL_1__1178_ vdd gnd FILL
XFILL_1__1247_ vdd gnd FILL
XFILL_3__971_ vdd gnd FILL
XFILL_2__1356_ vdd gnd FILL
XFILL_2__1425_ vdd gnd FILL
XFILL_0__958_ vdd gnd FILL
XFILL_2__1287_ vdd gnd FILL
XFILL_0__889_ vdd gnd FILL
X_1551_ _1555_/B _1555_/A _1553_/A vdd gnd XNOR2X1
X_1482_ _1482_/A _1482_/B _1507_/A vdd gnd XOR2X1
X_1620_ _1670_/B _999_/A _1699_/D vdd gnd XOR2X1
XFILL_3__1603_ vdd gnd FILL
XFILL_3__1534_ vdd gnd FILL
XFILL_3__1465_ vdd gnd FILL
XFILL_4__936_ vdd gnd FILL
XFILL_3__1396_ vdd gnd FILL
XFILL_1__1101_ vdd gnd FILL
XFILL_1__1032_ vdd gnd FILL
XFILL_4__867_ vdd gnd FILL
XFILL_4__1712_ vdd gnd FILL
XFILL_4__1643_ vdd gnd FILL
XFILL_4__1574_ vdd gnd FILL
XFILL_2__1210_ vdd gnd FILL
XFILL_1_BUFX2_insert2 vdd gnd FILL
XFILL_4__1008_ vdd gnd FILL
XFILL_2__1141_ vdd gnd FILL
XFILL_2__1072_ vdd gnd FILL
XFILL_0_CLKBUF1_insert9 vdd gnd FILL
XFILL_3__885_ vdd gnd FILL
XFILL_0__1610_ vdd gnd FILL
XFILL_3__1181_ vdd gnd FILL
XFILL_3__1250_ vdd gnd FILL
XFILL_2__1339_ vdd gnd FILL
XFILL_0__1472_ vdd gnd FILL
XFILL_0__1541_ vdd gnd FILL
XFILL_2__1408_ vdd gnd FILL
X_1603_ _1604_/B _1710_/Q _1603_/C _1604_/C vdd gnd AOI21X1
X_1534_ _1534_/A _1534_/B _1535_/B vdd gnd NAND2X1
X_1465_ _1537_/A _1473_/B _1466_/B vdd gnd NAND2X1
XFILL_1__1650_ vdd gnd FILL
X_1396_ _1428_/B _1397_/A vdd gnd INVX1
XFILL_1__1581_ vdd gnd FILL
XFILL_3__1517_ vdd gnd FILL
XFILL_4__1290_ vdd gnd FILL
XFILL_3__1448_ vdd gnd FILL
XFILL_4__919_ vdd gnd FILL
XFILL_2__972_ vdd gnd FILL
XFILL_3__1379_ vdd gnd FILL
XFILL_1__1015_ vdd gnd FILL
XFILL_4__1557_ vdd gnd FILL
XFILL_4__1626_ vdd gnd FILL
XFILL_4__1488_ vdd gnd FILL
XFILL_2__1055_ vdd gnd FILL
XFILL_2__1124_ vdd gnd FILL
XFILL_1__990_ vdd gnd FILL
X_1181_ _1694_/Q _1693_/Q _1332_/B _1351_/B vdd gnd NAND3X1
XFILL_3__937_ vdd gnd FILL
X_1250_ _1253_/A _1253_/B _1250_/C _1266_/A vdd gnd NAND3X1
XFILL_3__868_ vdd gnd FILL
XFILL_0__1524_ vdd gnd FILL
XFILL_3__1302_ vdd gnd FILL
XFILL_3__1164_ vdd gnd FILL
XFILL_0__1386_ vdd gnd FILL
XFILL_3__1233_ vdd gnd FILL
XFILL_3__1095_ vdd gnd FILL
XFILL_0__1455_ vdd gnd FILL
XFILL_4__1411_ vdd gnd FILL
XFILL_1__1633_ vdd gnd FILL
X_1517_ _1546_/B _1573_/B vdd gnd INVX1
X_1448_ _1582_/A _1582_/B _1595_/B vdd gnd NOR2X1
XFILL_4__1342_ vdd gnd FILL
X_1379_ _1379_/A _1612_/A _1379_/C _1381_/B vdd gnd NAND3X1
XFILL_4__1273_ vdd gnd FILL
XFILL_1__1564_ vdd gnd FILL
XFILL_1__1495_ vdd gnd FILL
XFILL_2__886_ vdd gnd FILL
X_961_ _961_/A _961_/B _963_/A vdd gnd NOR2X1
X_892_ _935_/A _894_/B _892_/C _893_/A vdd gnd NAND3X1
XFILL_4__1609_ vdd gnd FILL
XFILL_2__1673_ vdd gnd FILL
XFILL_0__1240_ vdd gnd FILL
XFILL_2__1038_ vdd gnd FILL
XFILL_0__1171_ vdd gnd FILL
XFILL_2__1107_ vdd gnd FILL
X_1233_ _1245_/B _1252_/A _1252_/C vdd gnd NOR2X1
XFILL_1__973_ vdd gnd FILL
X_1302_ _1302_/A _1302_/B _1302_/C _1303_/B vdd gnd NAND3X1
X_1164_ _1556_/A _1559_/A _1549_/A _1332_/B vdd gnd NAND3X1
XBUFX2_insert3 _859_/Y _948_/R vdd gnd BUFX2
XFILL_1__1280_ vdd gnd FILL
X_1095_ _1687_/Q _1542_/A vdd gnd INVX2
XFILL_0__1507_ vdd gnd FILL
XFILL_3__1216_ vdd gnd FILL
XFILL_3__1147_ vdd gnd FILL
XFILL_0__1438_ vdd gnd FILL
XFILL_3__1078_ vdd gnd FILL
XFILL_0__1369_ vdd gnd FILL
XFILL_4__1325_ vdd gnd FILL
XFILL_1__1616_ vdd gnd FILL
XFILL_4__1187_ vdd gnd FILL
XFILL_1__1547_ vdd gnd FILL
XFILL_4__1256_ vdd gnd FILL
XFILL_1__1478_ vdd gnd FILL
XFILL_0__991_ vdd gnd FILL
XFILL_2__869_ vdd gnd FILL
XFILL_2__1725_ vdd gnd FILL
X_944_ _944_/D vdd _947_/R _945_/CLK _962_/A vdd gnd DFFSR
X_875_ _885_/A _885_/C _880_/B vdd gnd NOR2X1
XFILL_2__1587_ vdd gnd FILL
XFILL_2__1656_ vdd gnd FILL
XFILL_0__1223_ vdd gnd FILL
XFILL_0__1154_ vdd gnd FILL
XFILL_3__1001_ vdd gnd FILL
XFILL_0__1085_ vdd gnd FILL
X_1216_ _1694_/Q _1216_/B _1217_/B vdd gnd NOR2X1
XFILL_1__887_ vdd gnd FILL
XFILL_4__1041_ vdd gnd FILL
XFILL_1__1401_ vdd gnd FILL
X_1147_ _1696_/Q _1317_/B _1317_/A _1315_/B vdd gnd NAND3X1
XFILL_1__1332_ vdd gnd FILL
X_1078_ _1078_/A _974_/Y _1079_/B vdd gnd AND2X2
XFILL_1__1263_ vdd gnd FILL
XFILL_4__1110_ vdd gnd FILL
XFILL_1__1194_ vdd gnd FILL
XFILL_2__1441_ vdd gnd FILL
XFILL_2__1510_ vdd gnd FILL
XFILL_2__1372_ vdd gnd FILL
XFILL_4__1308_ vdd gnd FILL
XFILL_0__974_ vdd gnd FILL
XFILL103950x4050 vdd gnd FILL
XFILL_4__1239_ vdd gnd FILL
X_927_ _953_/Q _933_/A vdd gnd INVX1
X_858_ _938_/D _858_/B _858_/C _858_/Y vdd gnd NOR3X1
XFILL_3__1481_ vdd gnd FILL
XFILL_3__1550_ vdd gnd FILL
X_1001_ _997_/A _1379_/A _998_/Y _1374_/C vdd gnd OAI21X1
XFILL_2__1639_ vdd gnd FILL
XCLKBUF1_insert10 clk _1689_/CLK vdd gnd CLKBUF1
XFILL_0__1206_ vdd gnd FILL
XFILL_4__883_ vdd gnd FILL
XFILL_0__1137_ vdd gnd FILL
XFILL102750x66450 vdd gnd FILL
XFILL_4__1590_ vdd gnd FILL
XFILL_0__1068_ vdd gnd FILL
X_1696_ _1696_/D vdd _1708_/R _945_/CLK _1696_/Q vdd gnd DFFSR
XFILL_1__1315_ vdd gnd FILL
XFILL_4__1024_ vdd gnd FILL
XFILL_1__1246_ vdd gnd FILL
XFILL_1__1177_ vdd gnd FILL
XFILL_3__970_ vdd gnd FILL
XFILL_2__1355_ vdd gnd FILL
XFILL_2__1424_ vdd gnd FILL
XFILL_0__957_ vdd gnd FILL
XFILL_2__1286_ vdd gnd FILL
XFILL_3__1602_ vdd gnd FILL
XFILL_0__888_ vdd gnd FILL
X_1481_ _1481_/A _1481_/B _1482_/A vdd gnd NAND2X1
X_1550_ _1691_/Q _1709_/Q _1555_/B vdd gnd XOR2X1
XFILL_3__1533_ vdd gnd FILL
XFILL_3__1464_ vdd gnd FILL
XFILL_4__935_ vdd gnd FILL
XFILL_3__1395_ vdd gnd FILL
XFILL_4__866_ vdd gnd FILL
XFILL_1__1100_ vdd gnd FILL
XFILL_1__1031_ vdd gnd FILL
XFILL_4__1711_ vdd gnd FILL
XFILL_1_BUFX2_insert3 vdd gnd FILL
XFILL_4__1642_ vdd gnd FILL
XFILL_4__1573_ vdd gnd FILL
X_1679_ _1679_/D _1702_/R vdd _1702_/CLK _1679_/Q vdd gnd DFFSR
XFILL_2__1140_ vdd gnd FILL
XFILL_1__1229_ vdd gnd FILL
XFILL_4__1007_ vdd gnd FILL
XFILL_2__1071_ vdd gnd FILL
XFILL_3__884_ vdd gnd FILL
XFILL_0__1540_ vdd gnd FILL
XFILL_2__1338_ vdd gnd FILL
XFILL_3__1180_ vdd gnd FILL
XFILL_2__1407_ vdd gnd FILL
XFILL_2__1269_ vdd gnd FILL
XFILL_0__1471_ vdd gnd FILL
X_1602_ _1697_/Q _1710_/Q _1602_/C _1603_/C vdd gnd OAI21X1
X_1395_ _1395_/A _1395_/B _1674_/C _1428_/B vdd gnd AOI21X1
X_1533_ _1533_/A _1533_/B _1534_/B vdd gnd NOR2X1
X_1464_ _1685_/Q _1680_/Q _1484_/C vdd gnd NAND2X1
XFILL_3__1378_ vdd gnd FILL
XFILL_3__1516_ vdd gnd FILL
XFILL_3__1447_ vdd gnd FILL
XFILL_1__1580_ vdd gnd FILL
XFILL_0__1669_ vdd gnd FILL
XFILL_4__918_ vdd gnd FILL
XFILL_2__971_ vdd gnd FILL
XFILL_1__1014_ vdd gnd FILL
XFILL_4__849_ vdd gnd FILL
XFILL_4__1556_ vdd gnd FILL
XFILL_4__1487_ vdd gnd FILL
XFILL_4__1625_ vdd gnd FILL
XFILL_2__1123_ vdd gnd FILL
XFILL_2__1054_ vdd gnd FILL
XFILL_3__936_ vdd gnd FILL
X_1180_ _1695_/Q _1403_/B vdd gnd INVX2
XFILL_3__1232_ vdd gnd FILL
XFILL_3__867_ vdd gnd FILL
XFILL_0__1523_ vdd gnd FILL
XFILL_3__1301_ vdd gnd FILL
XFILL_3__1163_ vdd gnd FILL
XFILL_0__1385_ vdd gnd FILL
XFILL_0__1454_ vdd gnd FILL
XFILL_3__1094_ vdd gnd FILL
X_1516_ _1516_/A _1516_/B _1546_/B vdd gnd NOR2X1
XFILL_4__1341_ vdd gnd FILL
X_1378_ _1549_/A _999_/Y _1556_/A _1379_/C vdd gnd OAI21X1
X_1447_ _965_/C _1447_/B _1534_/A _1582_/A vdd gnd NAND3X1
XFILL_1__1632_ vdd gnd FILL
XFILL_4__1410_ vdd gnd FILL
XFILL_4__1272_ vdd gnd FILL
XFILL_1__1494_ vdd gnd FILL
XFILL_1__1563_ vdd gnd FILL
XFILL_2__885_ vdd gnd FILL
XFILL_4__1608_ vdd gnd FILL
X_891_ _891_/A _891_/B _892_/C vdd gnd NAND2X1
X_960_ _960_/A _965_/A _965_/B _967_/A vdd gnd NAND3X1
XFILL_2__1672_ vdd gnd FILL
XFILL_4__1539_ vdd gnd FILL
XFILL_0__1170_ vdd gnd FILL
XFILL_2__1106_ vdd gnd FILL
XFILL_2__1037_ vdd gnd FILL
XFILL_3__919_ vdd gnd FILL
X_1232_ _1232_/A _1243_/A _1252_/A vdd gnd NAND2X1
XFILL_1__972_ vdd gnd FILL
XFILL102750x7950 vdd gnd FILL
X_1301_ _964_/A _1545_/A _1302_/A vdd gnd NAND2X1
XFILL_3__1215_ vdd gnd FILL
X_1163_ _1583_/A _1573_/A _1406_/A _1324_/B vdd gnd NOR3X1
XFILL_0__1437_ vdd gnd FILL
X_1094_ _1293_/B _1427_/A _1099_/B vdd gnd NAND2X1
XFILL_0__1506_ vdd gnd FILL
XFILL_3__1146_ vdd gnd FILL
XFILL_3__1077_ vdd gnd FILL
XFILL_0__1368_ vdd gnd FILL
XFILL_0__1299_ vdd gnd FILL
XFILL_4__1324_ vdd gnd FILL
XFILL_1__1615_ vdd gnd FILL
XFILL_1__1546_ vdd gnd FILL
XFILL_4__1186_ vdd gnd FILL
XFILL_2__937_ vdd gnd FILL
XFILL_0__990_ vdd gnd FILL
XFILL_4__1255_ vdd gnd FILL
XFILL_1__1477_ vdd gnd FILL
XFILL_2__868_ vdd gnd FILL
XFILL_2__1724_ vdd gnd FILL
X_874_ _965_/A _885_/B vdd gnd INVX1
XFILL_2__1655_ vdd gnd FILL
X_943_ _943_/D vdd _947_/R _945_/CLK _962_/B vdd gnd DFFSR
XFILL_2__1586_ vdd gnd FILL
XFILL_3__1000_ vdd gnd FILL
XFILL_0__1153_ vdd gnd FILL
XFILL_0__1222_ vdd gnd FILL
XFILL_0__1084_ vdd gnd FILL
X_1215_ _952_/Q _1583_/A _1226_/B vdd gnd NOR2X1
XFILL_1__1400_ vdd gnd FILL
X_1146_ _1695_/Q _1694_/Q _1317_/B vdd gnd AND2X2
XFILL_1__886_ vdd gnd FILL
XFILL_1__1193_ vdd gnd FILL
XFILL_4__1040_ vdd gnd FILL
XFILL_1__1331_ vdd gnd FILL
X_1077_ _856_/Y _1306_/C vdd gnd INVX1
XFILL_1__1262_ vdd gnd FILL
XFILL_3__1129_ vdd gnd FILL
XFILL_2__1440_ vdd gnd FILL
XFILL_2__1371_ vdd gnd FILL
XFILL_1__1529_ vdd gnd FILL
XFILL_4__1307_ vdd gnd FILL
XFILL_4__1238_ vdd gnd FILL
XFILL_4__1169_ vdd gnd FILL
XFILL_0__973_ vdd gnd FILL
X_1000_ _984_/B _999_/Y _1379_/A vdd gnd NAND2X1
X_926_ _953_/Q _932_/C _929_/B vdd gnd NAND2X1
X_857_ _938_/Q _938_/D vdd gnd INVX2
XFILL_3__1480_ vdd gnd FILL
XFILL_2__1638_ vdd gnd FILL
XFILL_2__1569_ vdd gnd FILL
XFILL_4__882_ vdd gnd FILL
XFILL_0__1205_ vdd gnd FILL
XFILL_0__1067_ vdd gnd FILL
XFILL_0__1136_ vdd gnd FILL
X_1695_ _1695_/D vdd _1709_/S _1709_/CLK _1695_/Q vdd gnd DFFSR
XFILL_1__869_ vdd gnd FILL
X_1129_ _958_/A _1520_/A _1260_/A vdd gnd NAND2X1
XFILL_1__1176_ vdd gnd FILL
XFILL_1__1245_ vdd gnd FILL
XFILL_4__1023_ vdd gnd FILL
XFILL_1__1314_ vdd gnd FILL
XFILL_2__1354_ vdd gnd FILL
XFILL_2__1423_ vdd gnd FILL
XFILL_2__1285_ vdd gnd FILL
XFILL_0__887_ vdd gnd FILL
XFILL_1_CLKBUF1_insert4 vdd gnd FILL
XFILL_3__1601_ vdd gnd FILL
XFILL_3__1532_ vdd gnd FILL
X_1480_ _1480_/A _1481_/B vdd gnd INVX1
X_909_ _915_/A _915_/B _910_/B vdd gnd NAND2X1
XFILL_3__1463_ vdd gnd FILL
XFILL_3__1394_ vdd gnd FILL
XFILL_4__934_ vdd gnd FILL
XFILL_1__1030_ vdd gnd FILL
XFILL_4__865_ vdd gnd FILL
XFILL_4__1641_ vdd gnd FILL
XFILL_0__1119_ vdd gnd FILL
X_1678_ _1678_/D vdd _1702_/R _1702_/CLK _1678_/Q vdd gnd DFFSR
XFILL_4__1572_ vdd gnd FILL
XFILL_1__1228_ vdd gnd FILL
XFILL_1__1159_ vdd gnd FILL
XFILL_4__1006_ vdd gnd FILL
XFILL_2__1070_ vdd gnd FILL
XFILL_3__883_ vdd gnd FILL
XFILL_2__1406_ vdd gnd FILL
XFILL_0__1470_ vdd gnd FILL
XFILL_2__1337_ vdd gnd FILL
XFILL_2__1268_ vdd gnd FILL
XFILL_2__1199_ vdd gnd FILL
X_1601_ _1601_/A _1604_/A _1697_/D vdd gnd XOR2X1
X_1532_ _968_/A _959_/A _1532_/C _1533_/B vdd gnd NAND3X1
XFILL_3__1515_ vdd gnd FILL
X_1463_ _1686_/Q _1680_/Q _1485_/B vdd gnd XOR2X1
X_1394_ _1394_/A _1394_/B _1397_/C vdd gnd NOR2X1
XFILL_2__970_ vdd gnd FILL
XFILL_3__1377_ vdd gnd FILL
XFILL_3__1446_ vdd gnd FILL
XFILL_0__1599_ vdd gnd FILL
XFILL_0__1668_ vdd gnd FILL
XFILL_1__1013_ vdd gnd FILL
XFILL_4__917_ vdd gnd FILL
XFILL_4__848_ vdd gnd FILL
XFILL_4__1624_ vdd gnd FILL
XFILL_4__1555_ vdd gnd FILL
XFILL_4__1486_ vdd gnd FILL
XFILL_2__1053_ vdd gnd FILL
XFILL_2__1122_ vdd gnd FILL
XFILL_3__935_ vdd gnd FILL
XFILL_3__866_ vdd gnd FILL
XFILL_3__1162_ vdd gnd FILL
XFILL_3__1231_ vdd gnd FILL
XFILL_0__1453_ vdd gnd FILL
XFILL_0__1522_ vdd gnd FILL
XFILL_3__1300_ vdd gnd FILL
XFILL_0__1384_ vdd gnd FILL
XFILL_3__1093_ vdd gnd FILL
X_1515_ _1534_/A _1515_/B _1516_/B vdd gnd NAND2X1
XFILL_4__1340_ vdd gnd FILL
X_1377_ _993_/A _999_/A _1612_/A vdd gnd NAND2X1
X_1446_ _1513_/C _1509_/C _1447_/B vdd gnd AND2X2
XFILL_1__1631_ vdd gnd FILL
XFILL_1__1562_ vdd gnd FILL
XFILL_3__1429_ vdd gnd FILL
XFILL_1__1493_ vdd gnd FILL
XFILL_2__884_ vdd gnd FILL
X_890_ _961_/B _890_/B _890_/C _894_/B vdd gnd NAND3X1
XFILL_4__1607_ vdd gnd FILL
XFILL_2__1671_ vdd gnd FILL
XFILL_4__1469_ vdd gnd FILL
XFILL_4__1538_ vdd gnd FILL
XFILL_2__1036_ vdd gnd FILL
XFILL_2__1105_ vdd gnd FILL
XFILL_3__918_ vdd gnd FILL
X_1162_ _1694_/Q _1583_/A vdd gnd INVX2
X_1231_ _1231_/A _1231_/B _1235_/A vdd gnd NOR2X1
XFILL_1__971_ vdd gnd FILL
XFILL_3__849_ vdd gnd FILL
X_1300_ _1300_/A _1300_/B _1302_/C vdd gnd NAND2X1
XFILL_3__1214_ vdd gnd FILL
XFILL_3__1145_ vdd gnd FILL
XFILL_0__1436_ vdd gnd FILL
X_1093_ _1394_/A _1427_/A vdd gnd INVX1
XFILL_0__1505_ vdd gnd FILL
XFILL_0__1367_ vdd gnd FILL
XFILL_3__1076_ vdd gnd FILL
XFILL_0__1298_ vdd gnd FILL
X_1429_ _1429_/A _1429_/B _1429_/C _1430_/C vdd gnd OAI21X1
XFILL_4__1323_ vdd gnd FILL
XFILL_4__1254_ vdd gnd FILL
XFILL_1__1614_ vdd gnd FILL
XFILL_1__1476_ vdd gnd FILL
XFILL_1__1545_ vdd gnd FILL
XFILL_4__1185_ vdd gnd FILL
XFILL_2__936_ vdd gnd FILL
XFILL103350x7950 vdd gnd FILL
XFILL_1_CLKBUF1_insert10 vdd gnd FILL
XFILL_2__867_ vdd gnd FILL
X_873_ _885_/A _885_/C _873_/C _941_/D vdd gnd AOI21X1
X_942_ _942_/D vdd _947_/R _945_/CLK _965_/A vdd gnd DFFSR
XFILL_2__1654_ vdd gnd FILL
XFILL_2__1585_ vdd gnd FILL
XFILL_2__1723_ vdd gnd FILL
XFILL_0__1221_ vdd gnd FILL
XFILL103350x85950 vdd gnd FILL
XFILL_0__1152_ vdd gnd FILL
XFILL_2__1019_ vdd gnd FILL
XFILL_0__1083_ vdd gnd FILL
X_1214_ _1226_/C _1214_/B _1226_/A vdd gnd NOR2X1
X_1145_ _1338_/A _1559_/A _1573_/A _1317_/A vdd gnd AOI21X1
XFILL_1__1330_ vdd gnd FILL
XFILL_1__885_ vdd gnd FILL
XFILL_1__1192_ vdd gnd FILL
XFILL_0__1419_ vdd gnd FILL
XFILL_3__1128_ vdd gnd FILL
XFILL_1__1261_ vdd gnd FILL
X_1076_ _1307_/B _1723_/A vdd gnd INVX1
XFILL_3__1059_ vdd gnd FILL
XFILL_1__1528_ vdd gnd FILL
XFILL_4__1237_ vdd gnd FILL
XFILL_4__1168_ vdd gnd FILL
XFILL_4__1306_ vdd gnd FILL
XFILL_2__1370_ vdd gnd FILL
XFILL_1__1459_ vdd gnd FILL
XFILL_2__919_ vdd gnd FILL
XFILL_0__972_ vdd gnd FILL
XFILL_4__1099_ vdd gnd FILL
X_925_ _925_/A _928_/A _925_/C _932_/C vdd gnd NOR3X1
XFILL103050x15750 vdd gnd FILL
X_856_ _858_/B _858_/C _856_/Y vdd gnd NOR2X1
XFILL103650x62550 vdd gnd FILL
XFILL_2__1568_ vdd gnd FILL
XFILL_2__1637_ vdd gnd FILL
XFILL_0__1204_ vdd gnd FILL
XFILL_4__881_ vdd gnd FILL
XFILL_2__1499_ vdd gnd FILL
X_1694_ _1694_/D vdd _1709_/S _1710_/CLK _1694_/Q vdd gnd DFFSR
XFILL_0__1066_ vdd gnd FILL
XFILL_0__1135_ vdd gnd FILL
XFILL_1__937_ vdd gnd FILL
XFILL_3__1677_ vdd gnd FILL